LAMMPS (7 Feb 2024 - Update 1)
# ================================
# melt.in
# Liquido LJ (~500 atomos) a T = 2.5
# rho ≈ 1.09, PBC, COM fijo
# ================================

# ---- Inicializacion ----
units           lj
atom_style      atomic
boundary        s s s

# ---- Lattice y caja ----
# fcc con densidad LJ = 1.09 (como en el paper)
lattice         fcc 0.7
Lattice spacing in x,y,z = 1.7878071 1.7878071 1.7878071

# Caja: 10x10x10 celdas en unidades de lattice → 4000 atomos
region          box block 0 10 0 10 0 10 units lattice
create_box      1 box
Created orthogonal box = (0 0 0) to (17.878071 17.878071 17.878071)
create_atoms    1 box
Created 4631 atoms

mass            1 1.0

# Comprobar numero de atomos
variable        natoms equal count(all)
Numero total de atomos creados = 4631

# ---- Potencial Lennard-Jones ----
pair_style      lj/cut 2.5
pair_coeff      1 1 1.0 1.0 2.5

neighbor        0.3 bin
neigh_modify    every 1 delay 0 check yes

# ---- Dinamica: Langevin + NVE ----
timestep        0.005

# Velocidades iniciales a T = 2.5
velocity        all create 1.0 12345 mom yes rot yes dist gaussian

# Termostato de Langevin a 2.5
fix             fT   all langevin 1.0 1.0 1.0 48279
fix             int  all nve

# Fijar centro de masa en el centro de la caja
# (ponerlo DESPUES de los fixes de integracion para evitar el warning)
#fix             keepCOM all recenter 0.5 0.5 0.5 units fraction

# (Fisicamente mas razonable si no quieres "teletransportar" el cluster:
#  fix mom all momentum 100 linear 1 1 1)

# ---- Output ----
thermo          200
thermo_style    custom step temp pe ke etotal press

dump            pos all atom 500 dump.4000atoms_T2p5.lammpstrj
dump_modify     pos sort id

# ---- Run ----
run             20000
Generated 0 of 0 mixed pair_coeff terms from geometric mixing rule
Step          Temp          PotEng         KinEng         TotEng         Press
0   1             -4.7027079      1.4996761     -3.2030318     -4.6698881
Averages over the last 51 of 101 rows, steps 10000 to 20000:
Temp PotEng KinEng TotEng Press
0.998306 -1.78479 1.49714 -0.287658 0.00365729
Loop time of 20.041 on 1 procs for 20000 steps with 4631 atoms

# (opcional) quitar Langevin y dejar un poco en NVE a T~2.5
unfix           fT
run             5000
Generated 0 of 0 mixed pair_coeff terms from geometric mixing rule
Step          Temp          PotEng         KinEng         TotEng         Press
20000   1.0084644     -1.5714942      1.51237       -0.059124178    0.0023020199
Averages over the last 13 of 26 rows, steps 22600 to 25000:
Temp PotEng KinEng TotEng Press
0.913518 -1.41177 1.36998 -0.0417925 0.000637002
Loop time of 3.3136 on 1 procs for 5000 steps with 4631 atoms

# Guardar configuracion liquida
write_data      liquid_4000atoms_T2p5_rho1p09.lmpdat
System init for write_data ...
Generated 0 of 0 mixed pair_coeff terms from geometric mixing rule
